




# =====================
# | Layers parameters |
# =====================

# Parameters for layers package
 &LAYERS_PARM01
 layers_bounds(1:124,1) = 25.832700, 26.332700, 26.832700, 27.332700, 27.832700, 
                          28.332700, 28.832700, 29.332700, 29.832700, 30.332700, 
                          30.382700, 30.432700, 30.482700, 30.532700, 30.582700, 
                          30.632700, 30.682700, 30.732700, 30.782700, 30.832700,  
                          30.882700, 30.932700, 30.982700, 31.032700, 31.082700,  
                          31.132700, 31.182700, 31.232700, 31.282700, 31.332700,  
                          31.382700, 31.432700, 31.482700, 31.532700, 31.582700,  
                          31.632700, 31.682700, 31.732700, 31.782700, 31.832700,  
                          31.882700, 31.932700, 31.982700, 32.032700, 32.082700,  
                          32.132700, 32.152700, 32.172700, 32.192700, 32.212700,  
                          32.232700, 32.242700, 32.252700, 32.262700, 32.272700,  
                          32.282700, 32.292700, 32.302700, 32.312700, 32.322700,  
                          32.332700, 32.342700, 32.352700, 32.362700, 32.372700,  
                          32.382700, 32.392700, 32.402700, 32.412700, 32.422700,  
                          32.432700, 32.442700, 32.452700, 32.462700, 32.472700,  
                          32.482700, 32.492700, 32.502700, 32.512700, 32.522700,  
                          32.532700, 32.537700, 32.542700, 32.547700,  
                          32.552700, 32.557700, 32.562700, 32.567700, 32.572700,  
                          32.577700, 32.582700, 32.587700, 32.592700, 32.597700,  
                          32.602700, 32.607700, 32.612700, 32.617700, 32.622700,  
                          32.627700, 32.632700, 32.642700, 32.652700, 32.662700,  
                          32.672700, 32.682700, 32.692700, 32.702700, 32.712700,  
                          32.722700, 32.732700, 32.752700, 32.772700, 32.792700,  
                          32.812700, 32.832700, 32.852700, 32.872700, 32.892700,  
                          32.912700, 32.932700, 32.952700, 32.972700  32.992700
 layers_krho(1)=69,
 layers_name(1)='RHO',
 layers_bolus=.FALSE.,
 &

